<configuration>
    <input>
        <net-file value="my_net.net.xml" />
        <route-files value="my_route.rou.xml" />
        <additional-files value="demo.add.xml" />
    </input>
    <time>
        <begin value="0" />
        <end value="2000" />
    </time>
</configuration>
