<nodes>
    <node id="node0" x="50" y="0" />
    <node id="node1" x="0" y="50" />
    <node id="node2" x="-50" y="0" />
    <node id="node3" x="0" y="-50" />
    <node id="node4" x="0" y="0" type="traffic_light" />
</nodes>
