<?xml version="1.0" encoding="UTF-8"?>

<!-- generated on Fri Apr 17 10:53:11 2020 by Eclipse SUMO netedit Version 1.5.0
<configuration xmlns:xsi="http://www.w3.org/2001/XMLSchema-instance" xsi:noNamespaceSchemaLocation="http://sumo.dlr.de/xsd/netconvertConfiguration.xsd">

    <input>
        <sumo-net-file value="/Users/albertpare/Codes/traffic_traci/my_net.net.xml"/>
    </input>

    <output>
        <output-file value="/Users/albertpare/Codes/traffic_traci/my_net.net.xml"/>
    </output>

    <processing>
        <geometry.min-radius.fix.railways value="false"/>
        <geometry.max-grade.fix value="false"/>
        <offset.disable-normalization value="true"/>
        <lefthand value="false"/>
    </processing>

    <junctions>
        <no-turnarounds value="true"/>
        <junctions.corner-detail value="5"/>
        <junctions.limit-turn-speed value="5.5"/>
        <rectangular-lane-cut value="false"/>
    </junctions>

    <pedestrian>
        <walkingareas value="false"/>
    </pedestrian>

    <report>
        <aggregate-warnings value="5"/>
    </report>

</configuration>
-->

<net version="1.3" junctionCornerDetail="5" limitTurnSpeed="5.50" xmlns:xsi="http://www.w3.org/2001/XMLSchema-instance" xsi:noNamespaceSchemaLocation="http://sumo.dlr.de/xsd/net_file.xsd">

    <location netOffset="50.00,50.00" convBoundary="0.00,0.00,100.00,100.00" origBoundary="-50.00,-50.00,50.00,50.00" projParameter="!"/>

    <type id="2L16" priority="2" numLanes="2" speed="16.00" disallow="pedestrian motorcycle bicycle"/>

    <edge id=":node4_0" function="internal">
        <lane id=":node4_0_0" index="0" allow="private emergency authority vip passenger hov taxi bus coach delivery truck trailer evehicle custom1 custom2" speed="6.51" length="9.03" shape="45.20,60.40 44.85,57.95 43.80,56.20 42.05,55.15 39.60,54.80"/>
    </edge>
    <edge id=":node4_1" function="internal">
        <lane id=":node4_1_0" index="0" allow="private emergency authority vip passenger hov taxi bus coach delivery truck trailer evehicle custom1 custom2" speed="16.00" length="20.80" shape="45.20,60.40 45.20,39.60"/>
    </edge>
    <edge id=":node4_2" function="internal">
        <lane id=":node4_2_0" index="0" allow="private emergency authority vip passenger hov taxi bus coach delivery truck trailer evehicle custom1 custom2" speed="9.26" length="19.35" shape="48.40,60.40 49.15,55.15 51.40,51.40 55.15,49.15 60.40,48.40"/>
    </edge>
    <edge id=":node4_3" function="internal">
        <lane id=":node4_3_0" index="0" allow="private emergency authority vip passenger hov taxi bus coach delivery truck trailer evehicle custom1 custom2" speed="6.51" length="9.03" shape="60.40,54.80 57.95,55.15 56.20,56.20 55.15,57.95 54.80,60.40"/>
    </edge>
    <edge id=":node4_4" function="internal">
        <lane id=":node4_4_0" index="0" allow="private emergency authority vip passenger hov taxi bus coach delivery truck trailer evehicle custom1 custom2" speed="16.00" length="20.80" shape="60.40,54.80 39.60,54.80"/>
    </edge>
    <edge id=":node4_5" function="internal">
        <lane id=":node4_5_0" index="0" allow="private emergency authority vip passenger hov taxi bus coach delivery truck trailer evehicle custom1 custom2" speed="9.26" length="19.35" shape="60.40,51.60 55.15,50.85 51.40,48.60 49.15,44.85 48.40,39.60"/>
    </edge>
    <edge id=":node4_6" function="internal">
        <lane id=":node4_6_0" index="0" allow="private emergency authority vip passenger hov taxi bus coach delivery truck trailer evehicle custom1 custom2" speed="6.51" length="9.03" shape="54.80,39.60 55.15,42.05 56.20,43.80 57.95,44.85 60.40,45.20"/>
    </edge>
    <edge id=":node4_7" function="internal">
        <lane id=":node4_7_0" index="0" allow="private emergency authority vip passenger hov taxi bus coach delivery truck trailer evehicle custom1 custom2" speed="16.00" length="20.80" shape="54.80,39.60 54.80,60.40"/>
    </edge>
    <edge id=":node4_8" function="internal">
        <lane id=":node4_8_0" index="0" allow="private emergency authority vip passenger hov taxi bus coach delivery truck trailer evehicle custom1 custom2" speed="9.26" length="19.35" shape="51.60,39.60 50.85,44.85 48.60,48.60 44.85,50.85 39.60,51.60"/>
    </edge>
    <edge id=":node4_9" function="internal">
        <lane id=":node4_9_0" index="0" allow="private emergency authority vip passenger hov taxi bus coach delivery truck trailer evehicle custom1 custom2" speed="6.51" length="9.03" shape="39.60,45.20 42.05,44.85 43.80,43.80 44.85,42.05 45.20,39.60"/>
    </edge>
    <edge id=":node4_10" function="internal">
        <lane id=":node4_10_0" index="0" allow="private emergency authority vip passenger hov taxi bus coach delivery truck trailer evehicle custom1 custom2" speed="16.00" length="20.80" shape="39.60,45.20 60.40,45.20"/>
    </edge>
    <edge id=":node4_11" function="internal">
        <lane id=":node4_11_0" index="0" allow="private emergency authority vip passenger hov taxi bus coach delivery truck trailer evehicle custom1 custom2" speed="9.26" length="19.35" shape="39.60,48.40 44.85,49.15 48.60,51.40 50.85,55.15 51.60,60.40"/>
    </edge>

    <edge id="n0ton4" from="node0" to="node4" priority="2" type="2L16">
        <lane id="n0ton4_0" index="0" allow="private emergency authority vip passenger hov taxi bus coach delivery truck trailer evehicle custom1 custom2" speed="16.00" length="39.60" shape="100.00,54.80 60.40,54.80"/>
        <lane id="n0ton4_1" index="1" allow="private emergency authority vip passenger hov taxi bus coach delivery truck trailer evehicle custom1 custom2" speed="16.00" length="39.60" shape="100.00,51.60 60.40,51.60"/>
    </edge>
    <edge id="n1ton4" from="node1" to="node4" priority="2" type="2L16">
        <lane id="n1ton4_0" index="0" allow="private emergency authority vip passenger hov taxi bus coach delivery truck trailer evehicle custom1 custom2" speed="16.00" length="39.60" shape="45.20,100.00 45.20,60.40"/>
        <lane id="n1ton4_1" index="1" allow="private emergency authority vip passenger hov taxi bus coach delivery truck trailer evehicle custom1 custom2" speed="16.00" length="39.60" shape="48.40,100.00 48.40,60.40"/>
    </edge>
    <edge id="n2ton4" from="node2" to="node4" priority="2" type="2L16">
        <lane id="n2ton4_0" index="0" allow="private emergency authority vip passenger hov taxi bus coach delivery truck trailer evehicle custom1 custom2" speed="16.00" length="39.60" shape="0.00,45.20 39.60,45.20"/>
        <lane id="n2ton4_1" index="1" allow="private emergency authority vip passenger hov taxi bus coach delivery truck trailer evehicle custom1 custom2" speed="16.00" length="39.60" shape="0.00,48.40 39.60,48.40"/>
    </edge>
    <edge id="n3ton4" from="node3" to="node4" priority="2" type="2L16">
        <lane id="n3ton4_0" index="0" allow="private emergency authority vip passenger hov taxi bus coach delivery truck trailer evehicle custom1 custom2" speed="16.00" length="39.60" shape="54.80,0.00 54.80,39.60"/>
        <lane id="n3ton4_1" index="1" allow="private emergency authority vip passenger hov taxi bus coach delivery truck trailer evehicle custom1 custom2" speed="16.00" length="39.60" shape="51.60,0.00 51.60,39.60"/>
    </edge>
    <edge id="n4ton0" from="node4" to="node0" priority="2" type="2L16">
        <lane id="n4ton0_0" index="0" allow="private emergency authority vip passenger hov taxi bus coach delivery truck trailer evehicle custom1 custom2" speed="16.00" length="39.60" shape="60.40,45.20 100.00,45.20"/>
        <lane id="n4ton0_1" index="1" allow="private emergency authority vip passenger hov taxi bus coach delivery truck trailer evehicle custom1 custom2" speed="16.00" length="39.60" shape="60.40,48.40 100.00,48.40"/>
    </edge>
    <edge id="n4ton1" from="node4" to="node1" priority="2" type="2L16">
        <lane id="n4ton1_0" index="0" allow="private emergency authority vip passenger hov taxi bus coach delivery truck trailer evehicle custom1 custom2" speed="16.00" length="39.60" shape="54.80,60.40 54.80,100.00"/>
        <lane id="n4ton1_1" index="1" allow="private emergency authority vip passenger hov taxi bus coach delivery truck trailer evehicle custom1 custom2" speed="16.00" length="39.60" shape="51.60,60.40 51.60,100.00"/>
    </edge>
    <edge id="n4ton2" from="node4" to="node2" priority="2" type="2L16">
        <lane id="n4ton2_0" index="0" allow="private emergency authority vip passenger hov taxi bus coach delivery truck trailer evehicle custom1 custom2" speed="16.00" length="39.60" shape="39.60,54.80 0.00,54.80"/>
        <lane id="n4ton2_1" index="1" allow="private emergency authority vip passenger hov taxi bus coach delivery truck trailer evehicle custom1 custom2" speed="16.00" length="39.60" shape="39.60,51.60 0.00,51.60"/>
    </edge>
    <edge id="n4ton3" from="node4" to="node3" priority="2" type="2L16">
        <lane id="n4ton3_0" index="0" allow="private emergency authority vip passenger hov taxi bus coach delivery truck trailer evehicle custom1 custom2" speed="16.00" length="39.60" shape="45.20,39.60 45.20,0.00"/>
        <lane id="n4ton3_1" index="1" allow="private emergency authority vip passenger hov taxi bus coach delivery truck trailer evehicle custom1 custom2" speed="16.00" length="39.60" shape="48.40,39.60 48.40,0.00"/>
    </edge>

    <tlLogic id="node4" type="static" programID="0" offset="0">
        <phase duration="42" state="rrrrrrrr"/>
    </tlLogic>

    <junction id="node0" type="dead_end" x="100.00" y="50.00" incLanes="n4ton0_0 n4ton0_1" intLanes="" shape="100.00,50.00 100.00,43.60 100.00,50.00"/>
    <junction id="node1" type="dead_end" x="50.00" y="100.00" incLanes="n4ton1_0 n4ton1_1" intLanes="" shape="50.00,100.00 56.40,100.00 50.00,100.00"/>
    <junction id="node2" type="dead_end" x="0.00" y="50.00" incLanes="n4ton2_0 n4ton2_1" intLanes="" shape="0.00,50.00 0.00,56.40 0.00,50.00"/>
    <junction id="node3" type="dead_end" x="50.00" y="0.00" incLanes="n4ton3_0 n4ton3_1" intLanes="" shape="50.00,0.00 43.60,0.00 50.00,0.00"/>
    <junction id="node4" type="traffic_light" x="50.00" y="50.00" incLanes="n1ton4_0 n1ton4_1 n0ton4_0 n0ton4_1 n3ton4_0 n3ton4_1 n2ton4_0 n2ton4_1" intLanes=":node4_0_0 :node4_1_0 :node4_2_0 :node4_3_0 :node4_4_0 :node4_5_0 :node4_6_0 :node4_7_0 :node4_8_0 :node4_9_0 :node4_10_0 :node4_11_0" shape="43.60,60.40 56.40,60.40 56.84,58.18 57.40,57.40 58.18,56.84 59.18,56.51 60.40,56.40 60.40,43.60 58.18,43.16 57.40,42.60 56.84,41.82 56.51,40.82 56.40,39.60 43.60,39.60 43.16,41.82 42.60,42.60 41.82,43.16 40.82,43.49 39.60,43.60 39.60,56.40 41.82,56.84 42.60,57.40 43.16,58.18 43.49,59.18">
        <request index="0"  response="000000000000" foes="000000010000" cont="0"/>
        <request index="1"  response="000000000000" foes="111100010000" cont="0"/>
        <request index="2"  response="000010000000" foes="100010110000" cont="0"/>
        <request index="3"  response="000010000000" foes="000010000000" cont="0"/>
        <request index="4"  response="000010000111" foes="100010000111" cont="0"/>
        <request index="5"  response="010110000100" foes="010110000100" cont="0"/>
        <request index="6"  response="000000000000" foes="010000000000" cont="0"/>
        <request index="7"  response="000000000000" foes="010000111100" cont="0"/>
        <request index="8"  response="000000000010" foes="110000100010" cont="0"/>
        <request index="9"  response="000000000010" foes="000000000010" cont="0"/>
        <request index="10" response="000111000010" foes="000111100010" cont="0"/>
        <request index="11" response="000100010110" foes="000100010110" cont="0"/>
    </junction>

    <connection from="n0ton4" to="n4ton1" fromLane="0" toLane="0" via=":node4_3_0" tl="node4" linkIndex="2" dir="r" state="o"/>
    <connection from="n0ton4" to="n4ton2" fromLane="0" toLane="0" via=":node4_4_0" tl="node4" linkIndex="2" dir="s" state="o"/>
    <connection from="n0ton4" to="n4ton3" fromLane="1" toLane="1" via=":node4_5_0" tl="node4" linkIndex="3" dir="l" state="o"/>
    <connection from="n1ton4" to="n4ton2" fromLane="0" toLane="0" via=":node4_0_0" tl="node4" linkIndex="0" dir="r" state="O"/>
    <connection from="n1ton4" to="n4ton3" fromLane="0" toLane="0" via=":node4_1_0" tl="node4" linkIndex="0" dir="s" state="O"/>
    <connection from="n1ton4" to="n4ton0" fromLane="1" toLane="1" via=":node4_2_0" tl="node4" linkIndex="1" dir="l" state="o"/>
    <connection from="n2ton4" to="n4ton3" fromLane="0" toLane="0" via=":node4_9_0" tl="node4" linkIndex="6" dir="r" state="o"/>
    <connection from="n2ton4" to="n4ton0" fromLane="0" toLane="0" via=":node4_10_0" tl="node4" linkIndex="6" dir="s" state="o"/>
    <connection from="n2ton4" to="n4ton1" fromLane="1" toLane="1" via=":node4_11_0" tl="node4" linkIndex="7" dir="l" state="o"/>
    <connection from="n3ton4" to="n4ton0" fromLane="0" toLane="0" via=":node4_6_0" tl="node4" linkIndex="4" dir="r" state="O"/>
    <connection from="n3ton4" to="n4ton1" fromLane="0" toLane="0" via=":node4_7_0" tl="node4" linkIndex="4" dir="s" state="O"/>
    <connection from="n3ton4" to="n4ton2" fromLane="1" toLane="1" via=":node4_8_0" tl="node4" linkIndex="5" dir="l" state="o"/>

    <connection from=":node4_0" to="n4ton2" fromLane="0" toLane="0" dir="r" state="M"/>
    <connection from=":node4_1" to="n4ton3" fromLane="0" toLane="0" dir="s" state="M"/>
    <connection from=":node4_2" to="n4ton0" fromLane="0" toLane="1" dir="l" state="M"/>
    <connection from=":node4_3" to="n4ton1" fromLane="0" toLane="0" dir="r" state="M"/>
    <connection from=":node4_4" to="n4ton2" fromLane="0" toLane="0" dir="s" state="M"/>
    <connection from=":node4_5" to="n4ton3" fromLane="0" toLane="1" dir="l" state="M"/>
    <connection from=":node4_6" to="n4ton0" fromLane="0" toLane="0" dir="r" state="M"/>
    <connection from=":node4_7" to="n4ton1" fromLane="0" toLane="0" dir="s" state="M"/>
    <connection from=":node4_8" to="n4ton2" fromLane="0" toLane="1" dir="l" state="M"/>
    <connection from=":node4_9" to="n4ton3" fromLane="0" toLane="0" dir="r" state="M"/>
    <connection from=":node4_10" to="n4ton0" fromLane="0" toLane="0" dir="s" state="M"/>
    <connection from=":node4_11" to="n4ton1" fromLane="0" toLane="1" dir="l" state="M"/>

</net>
